Version 4
SHEET 1 1268 1204
WIRE 192 -304 -640 -304
WIRE 944 -304 192 -304
WIRE 256 0 256 -64
WIRE 304 0 256 0
WIRE 416 0 368 0
WIRE 512 0 416 0
WIRE 688 0 512 0
WIRE -1328 32 -1328 -32
WIRE -1280 32 -1328 32
WIRE -1168 32 -1216 32
WIRE -1072 32 -1168 32
WIRE -896 32 -1072 32
WIRE 512 32 512 0
WIRE 416 48 416 0
WIRE 688 48 688 0
WIRE -1072 64 -1072 32
WIRE -1168 80 -1168 32
WIRE -896 80 -896 32
WIRE 944 80 944 -304
WIRE 624 96 576 96
WIRE -640 112 -640 -304
WIRE -960 128 -1008 128
WIRE 512 160 512 112
WIRE 576 160 576 96
WIRE 576 160 512 160
WIRE 688 160 688 144
WIRE 752 160 688 160
WIRE 896 160 832 160
WIRE 688 176 688 160
WIRE -1072 192 -1072 144
WIRE -1008 192 -1008 128
WIRE -1008 192 -1072 192
WIRE -896 192 -896 176
WIRE -832 192 -896 192
WIRE -688 192 -752 192
WIRE -896 208 -896 192
WIRE 576 224 576 160
WIRE 624 224 576 224
WIRE -1008 256 -1008 192
WIRE -960 256 -1008 256
WIRE -640 256 -640 208
WIRE -240 256 -640 256
WIRE 240 320 192 320
WIRE 320 320 304 320
WIRE 416 320 416 112
WIRE 688 320 688 272
WIRE 688 320 416 320
WIRE 944 320 944 176
WIRE 944 320 688 320
WIRE -1344 352 -1392 352
WIRE -1264 352 -1280 352
WIRE -1168 352 -1168 144
WIRE -896 352 -896 304
WIRE -896 352 -1168 352
WIRE -640 352 -640 256
WIRE -640 352 -896 352
WIRE 512 368 512 160
WIRE 512 368 416 368
WIRE -1072 400 -1072 192
WIRE -1072 400 -1168 400
WIRE 192 416 192 320
WIRE 192 416 144 416
WIRE 224 416 192 416
WIRE 320 416 320 320
WIRE 320 416 304 416
WIRE 352 416 320 416
WIRE -1392 448 -1392 352
WIRE -1392 448 -1440 448
WIRE -1360 448 -1392 448
WIRE -1264 448 -1264 352
WIRE -1264 448 -1280 448
WIRE -1232 448 -1264 448
WIRE 416 512 416 464
WIRE -1168 544 -1168 496
WIRE -880 640 -880 608
WIRE -640 672 -640 352
WIRE -944 688 -976 688
WIRE 704 736 704 704
WIRE -1120 752 -1136 752
WIRE -976 752 -976 688
WIRE -976 752 -1040 752
WIRE -880 752 -880 736
WIRE -832 752 -880 752
WIRE -688 752 -752 752
WIRE -880 768 -880 752
WIRE 944 768 944 320
WIRE 640 784 608 784
WIRE -976 816 -976 752
WIRE -944 816 -976 816
WIRE 464 848 448 848
WIRE 608 848 608 784
WIRE 608 848 544 848
WIRE 704 848 704 832
WIRE 752 848 704 848
WIRE 896 848 832 848
WIRE 704 864 704 848
WIRE -880 912 -880 864
WIRE 608 912 608 848
WIRE 640 912 608 912
WIRE 704 1008 704 960
WIRE -640 1184 -640 768
WIRE 144 1184 -640 1184
WIRE 944 1184 944 864
WIRE 944 1184 144 1184
FLAG 256 -64 12V
IOPIN 256 -64 In
FLAG 704 1008 0
FLAG 704 704 V12
IOPIN 704 704 In
FLAG 416 592 0
FLAG 448 848 Vb
IOPIN 448 848 In
FLAG 144 416 Vf
IOPIN 144 416 In
FLAG -1328 -32 12V
IOPIN -1328 -32 In
FLAG -1168 624 0
FLAG -1440 448 Vb
IOPIN -1440 448 In
FLAG -880 912 0
FLAG -880 608 V12
IOPIN -880 608 In
FLAG -1136 752 Vf
IOPIN -1136 752 In
FLAG 144 1184 0
FLAG 192 -304 Vin
IOPIN 192 -304 In
FLAG -352 832 0
FLAG -272 832 0
FLAG -192 832 0
FLAG -112 832 0
FLAG -352 752 Vin
IOPIN -352 752 In
FLAG -272 752 V12
IOPIN -272 752 In
FLAG -192 752 Vb
IOPIN -192 752 In
FLAG -112 752 Vf
IOPIN -112 752 In
SYMBOL nmos 896 768 R0
WINDOW 3 -33 -6 Invisible 2
SYMATTR Value irlz44n
SYMATTR InstName M1
SYMATTR Prefix x
SYMBOL nmos -688 672 R0
WINDOW 3 56 72 Invisible 2
SYMATTR Value irlz44n
SYMATTR InstName M2
SYMATTR Prefix x
SYMBOL nmos 896 80 R0
WINDOW 3 56 72 Invisible 2
SYMATTR Value irlz44n
SYMATTR InstName M3
SYMATTR Prefix x
SYMBOL npn 624 48 R0
SYMATTR InstName Q1
SYMBOL pnp 624 176 R0
SYMATTR InstName Q2
SYMBOL res 848 144 R90
WINDOW 0 0 56 VBottom 2
WINDOW 3 32 56 VTop 2
SYMATTR InstName R2
SYMATTR Value 10
SYMBOL res 496 16 R0
SYMATTR InstName R3
SYMATTR Value 2k
SYMBOL cap 400 48 R0
SYMATTR InstName C1
SYMATTR Value 100n
SYMBOL schottky 304 16 R270
WINDOW 0 32 32 VTop 2
WINDOW 3 0 32 VBottom 2
SYMATTR InstName D1
SYMATTR Value MBR20100CT
SYMBOL npn 352 368 R0
SYMATTR InstName Q3
SYMBOL res 400 496 R0
SYMATTR InstName R1
SYMATTR Value 100
SYMBOL res 320 400 R90
WINDOW 0 0 56 VBottom 2
WINDOW 3 32 56 VTop 2
SYMATTR InstName R4
SYMATTR Value 2k
SYMBOL cap 304 304 R90
WINDOW 0 0 32 VBottom 2
WINDOW 3 32 32 VTop 2
SYMATTR InstName C2
SYMATTR Value 220p
SYMBOL npn 640 736 R0
SYMATTR InstName Q4
SYMBOL pnp 640 864 R0
SYMATTR InstName Q5
SYMBOL res 560 832 R90
WINDOW 0 0 56 VBottom 2
WINDOW 3 32 56 VTop 2
SYMATTR InstName R5
SYMATTR Value 2k
SYMBOL nmos -688 112 R0
WINDOW 3 56 72 Invisible 2
SYMATTR Value irlz44n
SYMATTR InstName M5
SYMATTR Prefix x
SYMBOL npn -960 80 R0
SYMATTR InstName Q6
SYMBOL pnp -960 208 R0
SYMATTR InstName Q7
SYMBOL res -736 176 R90
WINDOW 0 0 56 VBottom 2
WINDOW 3 32 56 VTop 2
SYMATTR InstName R6
SYMATTR Value 10
SYMBOL res -1088 48 R0
SYMATTR InstName R7
SYMATTR Value 2k
SYMBOL cap -1184 80 R0
SYMATTR InstName C3
SYMATTR Value 100n
SYMBOL schottky -1280 48 R270
WINDOW 0 32 32 VTop 2
WINDOW 3 0 32 VBottom 2
SYMATTR InstName D2
SYMATTR Value MBR20100CT
SYMBOL npn -1232 400 R0
SYMATTR InstName Q8
SYMBOL res -1184 528 R0
SYMATTR InstName R8
SYMATTR Value 100
SYMBOL res -1264 432 R90
WINDOW 0 0 56 VBottom 2
WINDOW 3 32 56 VTop 2
SYMATTR InstName R9
SYMATTR Value 2k
SYMBOL cap -1280 336 R90
WINDOW 0 0 32 VBottom 2
WINDOW 3 32 32 VTop 2
SYMATTR InstName C4
SYMATTR Value 220p
SYMBOL npn -944 640 R0
SYMATTR InstName Q9
SYMBOL pnp -944 768 R0
SYMATTR InstName Q10
SYMBOL res -1024 736 R90
WINDOW 0 0 56 VBottom 2
WINDOW 3 32 56 VTop 2
SYMATTR InstName R10
SYMATTR Value 2k
SYMBOL ind -256 272 R270
WINDOW 0 32 56 VTop 2
WINDOW 3 5 56 VBottom 2
SYMATTR InstName L1
SYMATTR Value 200µH
SYMBOL voltage -352 736 R0
WINDOW 123 0 0 Left 0
WINDOW 39 0 0 Left 0
SYMATTR InstName V1
SYMATTR Value 24
SYMBOL voltage -272 736 R0
WINDOW 123 0 0 Left 0
WINDOW 39 0 0 Left 0
SYMATTR InstName V2
SYMATTR Value 12
SYMBOL voltage -192 736 R0
WINDOW 123 0 0 Left 0
WINDOW 39 0 0 Left 0
SYMATTR InstName V3
SYMATTR Value 0
SYMBOL voltage -112 736 R0
WINDOW 123 0 0 Left 0
WINDOW 39 0 0 Left 0
SYMATTR InstName V4
SYMATTR Value 10
SYMBOL res -736 736 R90
WINDOW 0 0 56 VBottom 2
WINDOW 3 32 56 VTop 2
SYMATTR InstName R12
SYMATTR Value 10
SYMBOL res 848 832 R90
WINDOW 0 0 56 VBottom 2
WINDOW 3 32 56 VTop 2
SYMATTR InstName R13
SYMATTR Value 10
TEXT -688 -424 Left 2 !.include ./models/IRLZ44N.spi
TEXT -680 -384 Left 2 !.tran 1s
TEXT -128 192 Left 2 ;Motor
